packages/bdgd2opendss/bdgd2opendss-1.0.1.tar.gz/bdgd2opendss-1.0.1/tests/dss_models_output/sub__SE001/17_SE001_1/ChavesMT_202312598_17_SE001_1_------1-----.dss
New "Line.CMT_17CS_1753" phases=3 bus1="779941.1.2.3" bus2="17CS1753.1.2.3" r1=0.001 r0=0.001 x1=0.0 x0=0.0 c1=0.0 c0=0.0  switch = T length=0.00100
New "Line.CMT_17RL_5214" phases=3 bus1="789551.1.2.3" bus2="17RL5214.1.2.3" r1=0.001 r0=0.001 x1=0.0 x0=0.0 c1=0.0 c0=0.0  switch = T length=0.00100
New "Line.CMT_17CF_607" phases=3 bus1="328591.1.2.3" bus2="17CF607.1.2.3" r1=0.001 r0=0.001 x1=0.0 x0=0.0 c1=0.0 c0=0.0  switch = T length=0.00100
New "Line.CMT_17CF_847" phases=3 bus1="789981.1.2.3" bus2="17CF847.1.2.3" r1=0.001 r0=0.001 x1=0.0 x0=0.0 c1=0.0 c0=0.0  switch = T length=0.00100
New "Line.CMT_17CS_1936" phases=3 bus1="828471.1.2.3" bus2="17CS1936.1.2.3" r1=0.001 r0=0.001 x1=0.0 x0=0.0 c1=0.0 c0=0.0  switch = T length=0.00100
New "Line.CMT_17CS_674" phases=3 bus1="828451.1.2.3" bus2="17CS674.1.2.3" r1=0.001 r0=0.001 x1=0.0 x0=0.0 c1=0.0 c0=0.0  switch = T length=0.00100
New "Line.CMT_17CS_290" phases=3 bus1="451291.1.2.3" bus2="17CS290.1.2.3" r1=0.001 r0=0.001 x1=0.0 x0=0.0 c1=0.0 c0=0.0  switch = T length=0.00100
New "Line.CMT_17CS_500" phases=3 bus1="779111.1.2.3" bus2="17CS500.1.2.3" r1=0.001 r0=0.001 x1=0.0 x0=0.0 c1=0.0 c0=0.0  switch = T length=0.00100
New "Line.CMT_17CS_37" phases=3 bus1="372351.1.2.3" bus2="17CS37.1.2.3" r1=0.001 r0=0.001 x1=0.0 x0=0.0 c1=0.0 c0=0.0  switch = T length=0.00100
New "Line.CMT_17CS_1279" phases=3 bus1="727431.1.2.3" bus2="17CS1279.1.2.3" r1=0.001 r0=0.001 x1=0.0 x0=0.0 c1=0.0 c0=0.0  switch = T length=0.00100
New "Line.CMT_17CF_1434" phases=3 bus1="746961.1.2.3" bus2="17CF1434.1.2.3" r1=0.001 r0=0.001 x1=0.0 x0=0.0 c1=0.0 c0=0.0  switch = T length=0.00100

New "Line.CMT_17CF_1269" phases=3 bus1="789971.1.2.3" bus2="17CF1269.1.2.3" r1=0.001 r0=0.001 x1=0.0 x0=0.0 c1=0.0 c0=0.0  switch = T length=0.00100
New "Line.CMT_17CF_645" phases=3 bus1="700371.1.2.3" bus2="17CF645.1.2.3" r1=0.001 r0=0.001 x1=0.0 x0=0.0 c1=0.0 c0=0.0  switch = T length=0.00100
New "Line.CMT_17CF_951" phases=3 bus1="663131.1.2.3" bus2="17CF951.1.2.3" r1=0.001 r0=0.001 x1=0.0 x0=0.0 c1=0.0 c0=0.0  switch = T length=0.00100
New "Line.CMT_17FR_1693" phases=3 bus1="766161.1.2.3" bus2="17FR1693.1.2.3" r1=0.001 r0=0.001 x1=0.0 x0=0.0 c1=0.0 c0=0.0  switch = T length=0.00100
New "Line.CMT_17CF_291" phases=3 bus1="765931.1.2.3" bus2="17CF291.1.2.3" r1=0.001 r0=0.001 x1=0.0 x0=0.0 c1=0.0 c0=0.0  switch = T length=0.00100
New "Line.CMT_17CF_964" phases=3 bus1="766101.1.2.3" bus2="17CF964.1.2.3" r1=0.001 r0=0.001 x1=0.0 x0=0.0 c1=0.0 c0=0.0  switch = T length=0.00100
New "Line.CMT_17CF_1702" phases=3 bus1="769471.1.2.3" bus2="17CF1702.1.2.3" r1=0.001 r0=0.001 x1=0.0 x0=0.0 c1=0.0 c0=0.0  switch = T length=0.00100
New "Line.CMT_17CF_1514" phases=3 bus1="689781.1.2.3" bus2="17CF1514.1.2.3" r1=0.001 r0=0.001 x1=0.0 x0=0.0 c1=0.0 c0=0.0  switch = T length=0.00100
New "Line.CMT_17CF_998" phases=3 bus1="780241.1.2.3" bus2="17CF998.1.2.3" r1=0.001 r0=0.001 x1=0.0 x0=0.0 c1=0.0 c0=0.0  switch = T length=0.00100



!New "Line.CMT_17BC8045" phases=3 bus1="780111.1.2.3" bus2="BC780111.1.2.3" r1=0.001 r0=0.001 x1=0.0 x0=0.0 c1=0.0 c0=0.0  switch = T length=0.00100
 !Chave MT em estado ABERTO!
